/*--------------------------------*- C++ -*----------------------------------*\
  =========                 |
  \\      /  F ield         | OpenFOAM: The Open Source CFD Toolbox
   \\    /   O peration     | Website:  https://openfoam.org
    \\  /    A nd           | Version:  8
     \\/     M anipulation  |
\*---------------------------------------------------------------------------*/
FoamFile
{
    version     2.0;
    format      ascii;
    class       volVectorField;
    location    "0";
    object      U;
}
// * * * * * * * * * * * * * * * * * * * * * * * * * * * * * * * * * * * * * //

dimensions      [0 1 -1 0 0 0 0];

internalField   uniform (0 0 0);

boundaryField
{
    top
    {
        type            partialSlip;
        valueFraction   uniform 0.2;
    }
    geo_100_mL_Wheel
    {
        type            movingWallVelocity;
        value           uniform (0 0 0);
    }
    cylinder_AMI1
    {
        type            cyclicAMI;
        value           uniform (0 0 0);
    }
    cylinder_AMI2
    {
        type            cyclicAMI;
        value           uniform (0 0 0);
    }
    Modified_100mL_Vessel
    {
        type            noSlip;
    }
}


// ************************************************************************* //
