/*--------------------------------*- C++ -*----------------------------------*\
| =========                 |                                                 |
| \\      /  F ield         | OpenFOAM: The Open Source CFD Toolbox           |
|  \\    /   O peration     | Version:  8.0                                 |
|   \\  /    A nd           | Web:      www.OpenFOAM.org                      |
|    \\/     M anipulation  |                                                 |
\*---------------------------------------------------------------------------*/
FoamFile
{
	version	2.0;
	class	dictionary;
	format	ascii;
	location	"constant";
	object	transportProperties;
}

transportModel	Newtonian;

nu	nu [0 2 -1 0 0 0 0] 6.696E-7;

Sct Sct [0 0 0 0 0 0 0] 0.7;

DAB DAB [0 2 -1 0 0 0 0] 3.4512e-9;
